data_C3D
_cell_length_a                  5.0
_cell_length_b                  5.0
_cell_length_c                  5.0
_cell_angle_alpha               90.0
_cell_angle_beta                90.0
_cell_angle_gamma               120.0
_symmetry_space_group_name_H-M 'P 1'
_symmetry_Int_Tables_number    '1'

loop_
_symmetry_equiv_pos_site_id
_symmetry_equiv_pos_as_xyz
  1     'x, y, z'

loop_
_atom_site_label
_atom_site_fract_x
_atom_site_fract_y
_atom_site_fract_z
atom0    0         0         0         
